mobley_9055303
  -OEChem-01201715283D

  5  4  0     0  0  0  0  0  0999 V2000
   -0.0000   -0.0000    0.0000 C   0  0  0  0  0  0  0  0  0  0  0  0
   -0.0570    1.0870   -0.0860 H   0  0  0  0  0  0  0  0  0  0  0  0
    0.6200   -0.3970   -0.8070 H   0  0  0  0  0  0  0  0  0  0  0  0
   -1.0040   -0.4240   -0.0700 H   0  0  0  0  0  0  0  0  0  0  0  0
    0.4420   -0.2670    0.9630 H   0  0  0  0  0  0  0  0  0  0  0  0
  1  2  1  0  0  0  0
  1  3  1  0  0  0  0
  1  4  1  0  0  0  0
  1  5  1  0  0  0  0
M  END
> <partial_charges>
-0.10869999975
0.0272000003606
0.0272000003606
0.0272000003606
0.0272000003606


> <partial_bond_orders>
1.0
1.0
1.0
1.0


> <atom_types>
c3
hc
hc
hc
hc


$$$$
mobley_8983100
  -OEChem-01201715333D

  5  4  0     0  0  0  0  0  0999 V2000
   -0.1790    0.0250   -0.0310 C   0  0  0  0  0  0  0  0  0  0  0  0
    1.7090   -0.2420    0.2920 Br  0  0  0  0  0  0  0  0  0  0  0  0
   -0.5550    0.7240    0.7180 H   0  0  0  0  0  0  0  0  0  0  0  0
   -0.2970    0.4330   -1.0360 H   0  0  0  0  0  0  0  0  0  0  0  0
   -0.6780   -0.9410    0.0570 H   0  0  0  0  0  0  0  0  0  0  0  0
  1  2  1  0  0  0  0
  1  3  1  0  0  0  0
  1  4  1  0  0  0  0
  1  5  1  0  0  0  0
M  END
> <partial_charges>
-0.0394000001252
-0.167899996042
0.0690999999642
0.0690999999642
0.0690999999642


> <partial_bond_orders>
1.0
1.0
1.0
1.0


> <atom_types>
c3
br
h1
h1
h1


$$$$
